/*--------------------------------*- C++ -*----------------------------------*\
| =========                 |                                                 |
| \\      /  F ield         | OpenFOAM: The Open Source CFD Toolbox           |
|  \\    /   O peration     | Version:  2.2.0                                 |
|   \\  /    A nd           | Web:      www.OpenFOAM.org                      |
|    \\/     M anipulation  |                                                 |
\*---------------------------------------------------------------------------*/
FoamFile
{
    version     2.3;
    format      ascii;
    class       dictionary;
    location    "constant";
    object      solverOptions;
}
// * * * * * * * * * * * * * * * * * * * * * * * * * * * * * * * * * * * * * //

Kinetics
{
	folder	   		"../../../kinetics/kinetics-GLOBAL";
	inertSpecies 		N2;
}

SteadyState
{
	sparseJacobian		true;
	jacobianUpdate		5;
	propertiesUpdate	5;
	implicitSourceTerm 	true;
	orderSpecies		"sweep";
	exceptionalSpecies	(none);
}

PhysicalModel
{
	strangAlgorithm 		"MomentumTransportReaction";
	homogeneousReactions 		on;
	momentumEquations		on;
	speciesEquations		on;
	energyEquation			on;
	constPressureBatchReactor 	true;

	sparseJacobian                  false;
	massDiffusionInEnergyEquation	on;
	diffusivityModel		"multi-component";

	soretEffect			on;
	thermophoreticEffect		off;

	includeDpDt			on;
	thermodynamicPressure		101325.;

	tauEquation			on;
	zMixEquation			on;
	zMixDmixSpecies			N2;
}

Output
{
	formationRates		off;
	listFormationRates      ();

	diffusivities		off;
}

PolimiSoot
{
	physicalSootDiffusivity off;
	thermophoreticEffectTag "BIN";
}

OdeHomogeneous
{
	odeSolver 	"OpenSMOKE";
	relTolerance 	1e-7;
	absTolerance 	1e-12;
	maximumOrder 	5;
	fullPivoting 	false;
}

Spark
{
	spark 		off;
	position    	(5.95e-3  0.0 1.5e-3);
	time		0.;
	temperature 	2205;
	duration 	0.025;
	diameter 	1.5e-3;
}

PostProcessing
{
	moleFractions	off;
	concentrations	off;
	mixtureFraction	off;
	soot		off;

        PolimiSoot
        {
                onTheFlyFill 		on;
		integralUpdate		10;
		planckCoefficient 	"none";
                boundaries      	();
                sootPrecursors  	(C10H8);
                binMinimum      	"BIN5";
                binIndexZero    	10;
                binIndexFinal   	20;
                binDensityZero  	1500.;
                binDensityFinal 	1500.;
                fractalDiameter 	3;
        }

}

#include "isatOptions"

#include "lewisNumbers"

#include "drgOptions"

// ************************************************************************* //
