/*--------------------------------*- C++ -*----------------------------------*\
| =========                 |                                                 |
| \\      /  F ield         | OpenFOAM: The Open Source CFD Toolbox           |
|  \\    /   O peration     | Version:  2.2.2                                 |
|   \\  /    A nd           | Web:      www.OpenFOAM.org                      |
|    \\/     M anipulation  |                                                 |
\*---------------------------------------------------------------------------*/
FoamFile
{
    version     2.0;
    format      ascii;
    class       dictionary;
    location    "system";
    object      fvSolution;
}
// * * * * * * * * * * * * * * * * * * * * * * * * * * * * * * * * * * * * * //

solvers
{
    p
    {
        solver          GAMG;
        tolerance       1e-08;
        relTol          0.05;
        smoother        GaussSeidel;
        cacheAgglomeration on;
        nCellsInCoarsestLevel 20;
        agglomerator    faceAreaPair;
        mergeLevels     1;
    }

    U
    {
        solver          smoothSolver;
        smoother        GaussSeidel;
        nSweeps         2;
        tolerance       1e-06;
        relTol          1e-04;
    }


    T
    {
        solver          smoothSolver;
        smoother        symGaussSeidel;
        tolerance       1e-07;
        relTol          1e-06;
    }

    Yi
    {
        solver          smoothSolver;
        smoother        symGaussSeidel;
        tolerance       1e-09;
        relTol          1e-06;
	minIter		1;
    }

    tau
    {
        solver          smoothSolver;
        smoother        symGaussSeidel;
        tolerance       1e-07;
        relTol          1e-06;
	minIter		1;
    }

    zMix
    {
        solver          smoothSolver;
        smoother        symGaussSeidel;
        tolerance       1e-07;
        relTol          1e-06;
	minIter		1;
    }

    Ii
    {
        solver                  GAMG;
        tolerance               1e-4;
        relTol                  0.1;
        smoother                symGaussSeidel;
        cacheAgglomeration      true;
        nCellsInCoarsestLevel   10;
        agglomerator            faceAreaPair;
        mergeLevels             1;
        maxIter                 3;
        nPreSweeps              0;
        nPostSweeps             1;
    }

    G
    {
        solver          smoothSolver;
        smoother        symGaussSeidel;
        tolerance       1e-07;
        relTol          1e-06;
        minIter         1;
    }
}

SIMPLE
{
    nNonOrthogonalCorrectors 0;
    rhoMin          rhoMin [ 1 -3 0 0 0 ] 0.075;
    rhoMax          rhoMax [ 1 -3 0 0 0 ] 2.0;

    residualControl
    {
	default         1e-7;

        p               1e-7;
        U               1e-7;
        T               1e-7;
    }
}

relaxationFactors
{
    fields
    {
        p               0.3;
        rho             0.05;
    }
    equations
    {
	default         0.3;

        U               0.5;
        T               0.3;

	tau		0.3;
	zMix		0.3;
	G		0.3;
	Ii		0.3;
    }
}


// ************************************************************************* //
